
#======================================================================
# CRYSTAL DATA
#----------------------------------------------------------------------
data_VESTA_phase_1

_chemical_name_common                  ''
_cell_length_a                         8.327029
_cell_length_b                         8.327029
_cell_length_c                         8.327029
_cell_angle_alpha                      89.999985
_cell_angle_beta                       89.999985
_cell_angle_gamma                      89.999985
_cell_volume                           577.391342
_space_group_name_H-M_alt              'P 1'
_space_group_IT_number                 1

loop_
_space_group_symop_operation_xyz
   'x, y, z'

loop_
   _atom_site_label
   _atom_site_occupancy
   _atom_site_fract_x
   _atom_site_fract_y
   _atom_site_fract_z
   _atom_site_adp_type
   _atom_site_B_iso_or_equiv
   _atom_site_type_symbol
   Ni1         1.0     0.000000     0.000000     0.000000    Biso  1.000000 Ni
   Ni2         1.0     0.250000     0.250000     0.500000    Biso  1.000000 Ni
   Ni3         1.0     0.500000     0.500000     0.000000    Biso  1.000000 Ni
   Ni4         1.0     0.750000     0.750000     0.500000    Biso  1.000000 Ni
   Ni5         1.0     0.250000     0.500000     0.250000    Biso  1.000000 Ni
   Ni6         1.0     0.500000     0.750000     0.750000    Biso  1.000000 Ni
   Ni7         1.0     0.750000     0.000000     0.250000    Biso  1.000000 Ni
   Ni8         1.0     0.000000     0.250000     0.750000    Biso  1.000000 Ni
   Ni9         1.0     0.500000     0.000000     0.500000    Biso  1.000000 Ni
   Ni10        1.0     0.750000     0.250000     0.000000    Biso  1.000000 Ni
   Ni11        1.0     0.000000     0.500000     0.500000    Biso  1.000000 Ni
   Ni12        1.0     0.250000     0.750000     0.000000    Biso  1.000000 Ni
   Ni13        1.0     0.750000     0.500000     0.750000    Biso  1.000000 Ni
   Ni14        1.0     0.000000     0.750000     0.250000    Biso  1.000000 Ni
   Ni15        1.0     0.250000     0.000000     0.750000    Biso  1.000000 Ni
   Ni16        1.0     0.500000     0.250000     0.250000    Biso  1.000000 Ni
   Mn1         1.0     0.500000     0.500000     0.500000    Biso  1.000000 Mn
   Mn2         1.0     0.750000     0.750000     0.000000    Biso  1.000000 Mn
   Mn3         1.0     0.000000     0.000000     0.500000    Biso  1.000000 Mn
   Mn4         1.0     0.250000     0.250000     0.000000    Biso  1.000000 Mn
   Mn5         1.0     0.750000     0.000000     0.750000    Biso  1.000000 Mn
   Mn6         1.0     0.000000     0.250000     0.250000    Biso  1.000000 Mn
   Mn7         1.0     0.250000     0.500000     0.750000    Biso  1.000000 Mn
   Mn8         1.0     0.500000     0.750000     0.250000    Biso  1.000000 Mn
   Mn9         1.0     0.000000     0.500000     0.000000    Biso  1.000000 Mn
   Mn10        1.0     0.250000     0.750000     0.500000    Biso  1.000000 Mn
   Mn11        1.0     0.500000     0.000000     0.000000    Biso  1.000000 Mn
   Mn12        1.0     0.750000     0.250000     0.500000    Biso  1.000000 Mn
   Mn13        1.0     0.250000     0.000000     0.250000    Biso  1.000000 Mn
   Mn14        1.0     0.500000     0.250000     0.750000    Biso  1.000000 Mn
   Mn15        1.0     0.750000     0.500000     0.250000    Biso  1.000000 Mn
   Mn16        1.0     0.000000     0.750000     0.750000    Biso  1.000000 Mn
   O1          1.0     0.250000     0.250000     0.250000    Biso  1.000000 O
   O2          1.0     0.500000     0.500000     0.750000    Biso  1.000000 O
   O3          1.0     0.750000     0.750000     0.250000    Biso  1.000000 O
   O4          1.0     0.000000     0.000000     0.750000    Biso  1.000000 O
   O5          1.0     0.500000     0.750000     0.500000    Biso  1.000000 O
   O6          1.0     0.750000     0.000000     0.000000    Biso  1.000000 O
   O7          1.0     0.000000     0.250000     0.500000    Biso  1.000000 O
   O8          1.0     0.250000     0.500000     0.000000    Biso  1.000000 O
   O9          1.0     0.750000     0.250000     0.750000    Biso  1.000000 O
   O10         1.0     0.000000     0.500000     0.250000    Biso  1.000000 O
   O11         1.0     0.250000     0.750000     0.750000    Biso  1.000000 O
   O12         1.0     0.500000     0.000000     0.250000    Biso  1.000000 O
   O13         1.0     0.000000     0.750000     0.000000    Biso  1.000000 O
   O14         1.0     0.250000     0.000000     0.500000    Biso  1.000000 O
   O15         1.0     0.500000     0.250000     0.000000    Biso  1.000000 O
   O16         1.0     0.750000     0.500000     0.500000    Biso  1.000000 O
   O17         1.0     0.750000     0.750000     0.750000    Biso  1.000000 O
   O18         1.0     0.000000     0.000000     0.250000    Biso  1.000000 O
   O19         1.0     0.250000     0.250000     0.750000    Biso  1.000000 O
   O20         1.0     0.500000     0.500000     0.250000    Biso  1.000000 O
   O21         1.0     0.000000     0.250000     0.000000    Biso  1.000000 O
   O22         1.0     0.250000     0.500000     0.500000    Biso  1.000000 O
   O23         1.0     0.500000     0.750000     0.000000    Biso  1.000000 O
   O24         1.0     0.750000     0.000000     0.500000    Biso  1.000000 O
   O25         1.0     0.250000     0.750000     0.250000    Biso  1.000000 O
   O26         1.0     0.500000     0.000000     0.750000    Biso  1.000000 O
   O27         1.0     0.750000     0.250000     0.250000    Biso  1.000000 O
   O28         1.0     0.000000     0.500000     0.750000    Biso  1.000000 O
   O29         1.0     0.500000     0.250000     0.500000    Biso  1.000000 O
   O30         1.0     0.750000     0.500000     0.000000    Biso  1.000000 O
   O31         1.0     0.000000     0.750000     0.500000    Biso  1.000000 O
   O32         1.0     0.250000     0.000000     0.000000    Biso  1.000000 O
